  Page 1                                    Tue Jul 19 00:02:36 2022

  ******************************************************************
  *                           E P A N E T                          *
  *                   Hydraulic and Water Quality                  *
  *                   Analysis for Pipe Networks                   *
  *                         Version 2.1                            *
  ******************************************************************
  
  Analysis begun Tue Jul 19 00:02:36 2022

  Analysis ended Tue Jul 19 00:02:36 2022
