  Page 1                                    Sun Jul 17 03:36:22 2022

  ******************************************************************
  *                           E P A N E T                          *
  *                   Hydraulic and Water Quality                  *
  *                   Analysis for Pipe Networks                   *
  *                         Version 2.1                            *
  ******************************************************************
  
  Analysis begun Sun Jul 17 03:36:22 2022

  Analysis ended Sun Jul 17 03:36:24 2022
